ieee33-dg-voltage-regulation/results/S2_HighDG_Voltages.csv
Bus, BasekV, Node1, Magnitude1, Angle1, pu1, Node2, Magnitude2, Angle2, pu2, Node3, Magnitude3, Angle3, pu3
"SOURCEBUS", 110, 1,    66618.5,    0.0,     1.049, 2,    66618.5, -120.0,     1.049, 3,    66618.5,  120.0,     1.049
"1", 12.66, 1,    7449.17,   -1.3,    1.0191, 2,    7449.17, -121.3,    1.0191, 3,    7449.17,  118.7,    1.0191
"2", 12.66, 1,    7439.03,   -1.2,    1.0178, 2,    7439.03, -121.2,    1.0178, 3,    7439.03,  118.8,    1.0178
"3", 12.66, 1,    7390.75,   -1.1,    1.0111, 2,    7390.75, -121.1,    1.0111, 3,    7390.75,  118.9,    1.0111
"4", 12.66, 1,     7371.7,   -1.0,    1.0085, 2,     7371.7, -121.0,    1.0085, 3,     7371.7,  119.0,    1.0085
"5", 12.66, 1,    7354.66,   -0.9,    1.0062, 2,    7354.66, -120.9,    1.0062, 3,    7354.66,  119.1,    1.0062
"6", 12.66, 1,    7307.72,   -0.7,   0.99979, 2,    7307.72, -120.7,   0.99979, 3,    7307.72,  119.3,   0.99979
"7", 12.66, 1,    7312.75,   -0.5,    1.0005, 2,    7312.75, -120.5,    1.0005, 3,    7312.75,  119.5,    1.0005
"8", 12.66, 1,    7340.15,   -0.5,    1.0042, 2,    7340.15, -120.5,    1.0042, 3,    7340.15,  119.5,    1.0042
"9", 12.66, 1,    7394.28,   -0.3,    1.0116, 2,    7394.28, -120.3,    1.0116, 3,    7394.28,  119.7,    1.0116
"10", 12.66, 1,    7452.63,   -0.1,    1.0196, 2,    7452.63, -120.1,    1.0196, 3,    7452.63,  119.9,    1.0196
"11", 12.66, 1,    7460.56,   -0.1,    1.0207, 2,    7460.56, -120.1,    1.0207, 3,    7460.56,  119.9,    1.0207
"12", 12.66, 1,     7476.6,   -0.1,    1.0229, 2,     7476.6, -120.1,    1.0229, 3,     7476.6,  119.9,    1.0229
"13", 12.66, 1,    7551.65,    0.2,    1.0332, 2,    7551.65, -119.8,    1.0332, 3,    7551.65,  120.2,    1.0332
"14", 12.66, 1,    7585.18,    0.4,    1.0377, 2,    7585.18, -119.6,    1.0377, 3,    7585.18,  120.4,    1.0377
"15", 12.66, 1,    7623.52,    0.5,     1.043, 2,    7623.52, -119.5,     1.043, 3,    7623.52,  120.5,     1.043
"16", 12.66, 1,    7672.18,    0.6,    1.0497, 2,    7672.18, -119.4,    1.0497, 3,    7672.18,  120.6,    1.0497
"17", 12.66, 1,     7774.8,    1.1,    1.0637, 2,     7774.8, -118.9,    1.0637, 3,     7774.8,  121.1,    1.0637
"18", 12.66, 1,    7828.26,    1.3,     1.071, 2,    7828.26, -118.7,     1.071, 3,    7828.26,  121.3,     1.071
"19", 12.66, 1,    7437.67,   -1.2,    1.0176, 2,    7437.67, -121.2,    1.0176, 3,    7437.67,  118.8,    1.0176
"20", 12.66, 1,    7434.09,   -1.2,    1.0171, 2,    7434.09, -121.2,    1.0171, 3,    7434.09,  118.8,    1.0171
"21", 12.66, 1,    7435.28,   -1.2,    1.0172, 2,    7435.28, -121.2,    1.0172, 3,    7435.28,  118.8,    1.0172
"22", 12.66, 1,    7441.73,   -1.1,    1.0181, 2,    7441.73, -121.1,    1.0181, 3,    7441.73,  118.9,    1.0181
"23", 12.66, 1,    7370.86,   -1.1,    1.0084, 2,    7370.86, -121.1,    1.0084, 3,    7370.86,  118.9,    1.0084
"24", 12.66, 1,    7334.76,   -1.1,    1.0035, 2,    7334.76, -121.1,    1.0035, 3,    7334.76,  118.9,    1.0035
"25", 12.66, 1,    7322.32,   -1.1,    1.0018, 2,    7322.32, -121.1,    1.0018, 3,    7322.32,  118.9,    1.0018
"26", 12.66, 1,    7294.38,   -0.6,   0.99796, 2,    7294.38, -120.6,   0.99796, 3,    7294.38,  119.4,   0.99796
"27", 12.66, 1,    7276.64,   -0.6,   0.99554, 2,    7276.64, -120.6,   0.99554, 3,    7276.64,  119.4,   0.99554
"28", 12.66, 1,    7197.51,   -0.5,   0.98471, 2,    7197.51, -120.5,   0.98471, 3,    7197.51,  119.5,   0.98471
"29", 12.66, 1,    7140.67,   -0.4,   0.97694, 2,    7140.67, -120.4,   0.97694, 3,    7140.67,  119.6,   0.97694
"30", 12.66, 1,    7116.06,   -0.3,   0.97357, 2,    7116.06, -120.3,   0.97357, 3,    7116.06,  119.7,   0.97357
"31", 12.66, 1,    7087.29,   -0.4,   0.96963, 2,    7087.29, -120.4,   0.96963, 3,    7087.29,  119.6,   0.96963
"32", 12.66, 1,    7080.96,   -0.4,   0.96877, 2,    7080.96, -120.4,   0.96877, 3,    7080.96,  119.6,   0.96877
"33", 12.66, 1,       7079,   -0.4,    0.9685, 2,       7079, -120.4,    0.9685, 3,       7079,  119.6,    0.9685
